1

                    Execution started at 20191202.092448         



                    ---------------------------------------
                                     SWAN
                    SIMULATION OF WAVES IN NEAR SHORE AREAS
                             VERSION NUMBER 41.01AB             
                    ---------------------------------------


    
 PROJ 'Coorong 2014 2016' 'v1'
 ** Error            : too long string given for: NAME                                    
 name=NAME string=Coorong 2014 2016
    
 
    
 SET   0.5  90   0.05   200     2    9.81  1012   99999   0     0.1    NAUTical  4       0.8     4      4
    
 $    level  nor depmin maxmes maxerr grav  rho      cdcap inrhog hsrerr           pwtail froudmax printf prtest
    
 
    
 MODE NONSTATIONARY
    
 COORD CARTESIAN
    
 
    
 CGRID REGular  299594.000  5985647.000   .0   84050  82050  84  82  CIRCLE  36  0.2  2.  27
 Resolution in sigma-space: df/f =  0.0890
    
 
    
 INPgrid BOTTOM   299594.000  5985647.000  .0    84  82   50   50   EXC -999.9
    
 
    
 READINP BOTTOM -1.0 'Bathymetry/Bathymetry.dat'  1   0   FREE
    
 
    
 INPGRID Wind REG 299594.000  5985647.000  0    84  82   50   50 NONSTATIONARY 20140101 3 HR 20140401
    
 
    
 READINP Wind 1  SERIES 'Wind_Map_Series.txt' 1 0 FREE
    
 
    
 
    
 GEN3 KOMEN
    
 BREAKING CON alpha=1.0 gamma=0.73
    
 FRICTION MADSEN 0.05
    
 TRIAD
    
 WCAPping KOMen
    
 PROP BSBT
    
 FRAME 'SWAN' 299594 5985647  16.0 84050 82050  84  82
    
 BLOCK 'COMPGRID' NOHEAD './out/depth.mat' LAY 1 DEPTH OUTPUT 20140101 1 HR
    
 BLOCK 'COMPGRID' NOHEAD './out/tm01.mat'  LAY 1 TM01  OUTPUT 20140101 1 HR
    
 BLOCK 'COMPGRID' NOHEAD './out/h13.mat'   LAY 1 HSIGN OUTPUT 20140101 1 HR
    
 BLOCK 'COMPGRID' NOHEAD './out/ubot.mat'  LAY 1 UBOT  OUTPUT 20140101 1 HR
    
 BLOCK 'COMPGRID' NOHEAD './out/tmbot.mat' LAY 1 TMBOT OUTPUT 20140101 1 HR
    
 BLOCK 'COMPGRID' NOHEAD './out/wind.mat'  LAY 1 WIND  OUTPUT 20140101 1 HR
    
 BLOCK 'COMPGRID' NOHEAD './out/tra.mat'   LAY 1 TRA   OUTPUT 20140101 1 HR
    
 BLOCK 'COMPGRID' NOHEAD './out/tps.mat'   LAY 1 TPS   OUTPUT 20140101 1 HR
    
 BLOCK 'COMPGRID' NOHEAD './out/dir.mat'   LAY 1 DIR   OUTPUT 220140101 1 HR
 erroneous month 40 in date/time 2201  40  10   0   0   0
    
 BLOCK 'COMPGRID' NOHEAD './out/bathy.mat' LAY 1 BOTL
    
 BLOCK 'COMPGRID' NOHEAD './out/WAVE.nc'   LAY 3 HSIGN TPS PDIR UBOT DEPTH OUTPUT 20140101 1 Hr
    
 TEST 1 0
    
 COMPUTE NONSTAT 20140101  10 MIN 20140401
 ** Warning          : Corner of comp grid outside bottom grid
 Coordinates : 299594.006067697.00
 ** Warning          : Corner of comp grid outside bottom grid
 Coordinates : 383644.005985647.00
 ** Warning          : Corner of comp grid outside bottom grid
 Coordinates : 383644.006067697.00
 ** Error            :  Centre of comp. grid outside bottom grid
 ** Warning          : (corner)point outside bottom grid
       Set of output locations: SWAN      coordinates: 276977.946064518.50
 ** Warning          : (corner)point outside comp. grid
       Set of output locations: SWAN      coordinates: 276977.946064518.50
 ** Warning          : (corner)point outside bottom grid
       Set of output locations: SWAN      coordinates: 380388.066008814.50
 ** Warning          : (corner)point outside bottom grid
       Set of output locations: SWAN      coordinates: 357772.006087686.00
 ** Warning          : (corner)point outside comp. grid
       Set of output locations: SWAN      coordinates: 357772.006087686.00
 Time of computation ->  20140101.001000      in sec:        600.

----------------------------------------------------------------
                  COMPUTATIONAL PART OF SWAN
----------------------------------------------------------------

 Gridresolution       : MXC              85 MYC             83
                      : MCGRD          7056
                      : MSC              28 MDC             36
                      : MTC           12960
                      : NSTATC            1 ITERMX           1
 Propagation flags    : ITFRE             1 IREFR            1
 Source term flags    : IBOT              3 ISURF            1
                      : IWCAP             1 IWIND            3
                      : ITRIAD            1 IQUAD            2
                      : IVEG              0 ITURBV           0
                      : IMUD              0
 Spatial step         : DX       0.1001E+04 DY      0.1001E+04
 Spectral bin         : df/f     0.8902E-01 DDIR    0.1000E+02
 Physical constants   : GRAV     0.9810E+01 RHO     0.1012E+04
 Wind input           : WSPEED   0.0000E+00 DIR     0.0000E+00
 Tail parameters      : E(f)     0.4000E+01 E(k)    0.2500E+01
                      : A(f)     0.5000E+01 A(k)    0.3000E+01
 Accuracy parameters  : DREL     0.1000E-01 NPNTS   0.9950E+02
                      : DHABS    0.5000E-02 CURVAT  0.5000E-02
                      : GRWMX    0.1000E+00
 Drying/flooding      : LEVEL    0.5000E+00 DEPMIN  0.5000E-01
 The nautical  convention for wind and wave directions is used
 Scheme for geographic propagation is BSBT  
 Scheme geogr. space  : PROPSC            1 ICMAX            5
 Scheme spectral space: CSS      0.5000E+00 CDD     0.5000E+00
 Current is off
 Quadruplets          : IQUAD             2
                      : LAMBDA   0.2500E+00 CNL4    0.3000E+08
                      : CSH1     0.5500E+01 CSH2    0.8330E+00
                      : CSH3    -0.1250E+01
 Maximum Ursell nr for Snl4 :    0.1000E+02
 Triads               : ITRIAD            1 TRFAC   0.6500E+00
                      : CUTFR    0.2500E+01 URCRI   0.2000E+00
 Minimum Ursell nr for Snl3 :    0.1000E-01
 Madsen et al. (`84)  : MF      -0.8000E-01 KN      0.5000E-01
 Vegetation is off
 Turbulence is off
 Fluid mud is off
 W-cap Komen (`84)    : EMPCOF (CDS2):   0.2360E-04
 W-cap Komen (`84)    : APM (STPM)   :   0.3020E-02
 W-cap Komen (`84)    : POWST        :   0.2000E+01
 W-cap Komen (`84)    : DELTA        :   0.1000E+01
 W-cap Komen (`84)    : POWK         :   0.1000E+01
 Snyder/Komen wind input
 Battjes&Janssen (`78): ALPHA    0.1000E+01 GAMMA   0.7300E+00
 Set-up is off
 Diffraction is off
 Janssen (`89,`90)    : ALPHA    0.1000E-01 KAPPA   0.4100E+00
 Janssen (`89,`90)    : RHOA     0.1280E+01 RHOW    0.1012E+04
 
 1st and 2nd gen. wind: CF10     0.1880E+03 CF20    0.5900E+00
                      : CF30     0.1200E+00 CF40    0.2500E+03
                      : CF50     0.2300E-02 CF60   -0.2230E+00
                      : CF70     0.0000E+00 CF80   -0.5600E+00
                      : RHOAW    0.1265E-02 EDMLPM  0.3600E-02
                      : CDRAG    0.1230E-02 UMIN    0.1000E+01
                      : LIM_PM   0.1300E+00
 
 not possible to compute, first iteration

 
 Time of computation ->  20140101.002000      in sec:       1200.
 not possible to compute, first iteration

 
 Time of computation ->  20140101.003000      in sec:       1800.
 not possible to compute, first iteration

 
 Time of computation ->  20140101.004000      in sec:       2400.
 not possible to compute, first iteration

 
 Time of computation ->  20140101.005000      in sec:       3000.
 not possible to compute, first iteration

 
 Time of computation ->  20140101.010000      in sec:       3600.
 not possible to compute, first iteration

 
 Time of computation ->  20140101.011000      in sec:       4200.
 not possible to compute, first iteration

 
 Time of computation ->  20140101.012000      in sec:       4800.
 not possible to compute, first iteration

 
 Time of computation ->  20140101.013000      in sec:       5400.
 not possible to compute, first iteration

 
 Time of computation ->  20140101.014000      in sec:       6000.
 not possible to compute, first iteration

 
 Time of computation ->  20140101.015000      in sec:       6600.
 not possible to compute, first iteration

 
 Time of computation ->  20140101.020000      in sec:       7200.
 not possible to compute, first iteration

 
 Time of computation ->  20140101.021000      in sec:       7800.
 not possible to compute, first iteration

 
 Time of computation ->  20140101.022000      in sec:       8400.
 not possible to compute, first iteration

 
 Time of computation ->  20140101.023000      in sec:       9000.
 not possible to compute, first iteration

 
 Time of computation ->  20140101.024000      in sec:       9600.
 not possible to compute, first iteration

 
 Time of computation ->  20140101.025000      in sec:      10200.
 not possible to compute, first iteration

 
 Time of computation ->  20140101.030000      in sec:      10800.
 not possible to compute, first iteration

 
 Time of computation ->  20140101.031000      in sec:      11400.
 not possible to compute, first iteration

 
 Time of computation ->  20140101.032000      in sec:      12000.
 not possible to compute, first iteration

 
 Time of computation ->  20140101.033000      in sec:      12600.
 not possible to compute, first iteration

 
 Time of computation ->  20140101.034000      in sec:      13200.
 not possible to compute, first iteration

 
 Time of computation ->  20140101.035000      in sec:      13800.
 not possible to compute, first iteration

 
 Time of computation ->  20140101.040000      in sec:      14400.
 not possible to compute, first iteration

 
 Time of computation ->  20140101.041000      in sec:      15000.
 not possible to compute, first iteration

 
 Time of computation ->  20140101.042000      in sec:      15600.
 not possible to compute, first iteration

 
 Time of computation ->  20140101.043000      in sec:      16200.
 not possible to compute, first iteration

 
 Time of computation ->  20140101.044000      in sec:      16800.
 not possible to compute, first iteration

 
 Time of computation ->  20140101.045000      in sec:      17400.
 not possible to compute, first iteration

 
 Time of computation ->  20140101.050000      in sec:      18000.
 not possible to compute, first iteration

 
 Time of computation ->  20140101.051000      in sec:      18600.
 not possible to compute, first iteration

 
 Time of computation ->  20140101.052000      in sec:      19200.
 not possible to compute, first iteration

 
 Time of computation ->  20140101.053000      in sec:      19800.
 not possible to compute, first iteration

 
 Time of computation ->  20140101.054000      in sec:      20400.
 not possible to compute, first iteration

 
 Time of computation ->  20140101.055000      in sec:      21000.
 not possible to compute, first iteration

 
 Time of computation ->  20140101.060000      in sec:      21600.
 not possible to compute, first iteration

 
 Time of computation ->  20140101.061000      in sec:      22200.
 not possible to compute, first iteration

 
 Time of computation ->  20140101.062000      in sec:      22800.
 not possible to compute, first iteration

 
 Time of computation ->  20140101.063000      in sec:      23400.
 not possible to compute, first iteration

 
 Time of computation ->  20140101.064000      in sec:      24000.
 not possible to compute, first iteration

 
 Time of computation ->  20140101.065000      in sec:      24600.
 not possible to compute, first iteration

 
 Time of computation ->  20140101.070000      in sec:      25200.
 not possible to compute, first iteration

 
 Time of computation ->  20140101.071000      in sec:      25800.
 not possible to compute, first iteration

 
 Time of computation ->  20140101.072000      in sec:      26400.
 not possible to compute, first iteration

 
 Time of computation ->  20140101.073000      in sec:      27000.
 not possible to compute, first iteration

 
 Time of computation ->  20140101.074000      in sec:      27600.
 not possible to compute, first iteration

 
 Time of computation ->  20140101.075000      in sec:      28200.
 not possible to compute, first iteration

 
 Time of computation ->  20140101.080000      in sec:      28800.
 not possible to compute, first iteration

 
 Time of computation ->  20140101.081000      in sec:      29400.
 not possible to compute, first iteration

 
 Time of computation ->  20140101.082000      in sec:      30000.
 not possible to compute, first iteration

 
 Time of computation ->  20140101.083000      in sec:      30600.
 not possible to compute, first iteration

 
 Time of computation ->  20140101.084000      in sec:      31200.
 not possible to compute, first iteration

 
 Time of computation ->  20140101.085000      in sec:      31800.
 not possible to compute, first iteration

 
 Time of computation ->  20140101.090000      in sec:      32400.
 not possible to compute, first iteration

 
 Time of computation ->  20140101.091000      in sec:      33000.
 not possible to compute, first iteration

 
 Time of computation ->  20140101.092000      in sec:      33600.
 not possible to compute, first iteration

 
 Time of computation ->  20140101.093000      in sec:      34200.
 not possible to compute, first iteration

 
 Time of computation ->  20140101.094000      in sec:      34800.
 not possible to compute, first iteration

 
 Time of computation ->  20140101.095000      in sec:      35400.
 not possible to compute, first iteration

 
 Time of computation ->  20140101.100000      in sec:      36000.
 not possible to compute, first iteration

 
 Time of computation ->  20140101.101000      in sec:      36600.
 not possible to compute, first iteration

 
 Time of computation ->  20140101.102000      in sec:      37200.
 not possible to compute, first iteration

 
 Time of computation ->  20140101.103000      in sec:      37800.
 not possible to compute, first iteration

 
 Time of computation ->  20140101.104000      in sec:      38400.
 not possible to compute, first iteration

 
 Time of computation ->  20140101.105000      in sec:      39000.
 not possible to compute, first iteration

 
 Time of computation ->  20140101.110000      in sec:      39600.
 not possible to compute, first iteration

 
 Time of computation ->  20140101.111000      in sec:      40200.
 not possible to compute, first iteration

 
 Time of computation ->  20140101.112000      in sec:      40800.
 not possible to compute, first iteration

 
 Time of computation ->  20140101.113000      in sec:      41400.
 not possible to compute, first iteration

 
 Time of computation ->  20140101.114000      in sec:      42000.
 not possible to compute, first iteration

 
 Time of computation ->  20140101.115000      in sec:      42600.
 not possible to compute, first iteration

 
 Time of computation ->  20140101.120000      in sec:      43200.
 not possible to compute, first iteration

 
 Time of computation ->  20140101.121000      in sec:      43800.
 not possible to compute, first iteration

 
 Time of computation ->  20140101.122000      in sec:      44400.
 not possible to compute, first iteration

 
 Time of computation ->  20140101.123000      in sec:      45000.
 not possible to compute, first iteration

 
 Time of computation ->  20140101.124000      in sec:      45600.
 not possible to compute, first iteration

 
 Time of computation ->  20140101.125000      in sec:      46200.
 not possible to compute, first iteration

 
 Time of computation ->  20140101.130000      in sec:      46800.
 not possible to compute, first iteration

 
 Time of computation ->  20140101.131000      in sec:      47400.
 not possible to compute, first iteration

 
 Time of computation ->  20140101.132000      in sec:      48000.
 not possible to compute, first iteration

 
 Time of computation ->  20140101.133000      in sec:      48600.
 not possible to compute, first iteration

 
 Time of computation ->  20140101.134000      in sec:      49200.
 not possible to compute, first iteration

 
 Time of computation ->  20140101.135000      in sec:      49800.
 not possible to compute, first iteration

 
 Time of computation ->  20140101.140000      in sec:      50400.
 not possible to compute, first iteration

 
 Time of computation ->  20140101.141000      in sec:      51000.
 not possible to compute, first iteration

 
 Time of computation ->  20140101.142000      in sec:      51600.
 not possible to compute, first iteration

 
 Time of computation ->  20140101.143000      in sec:      52200.
 not possible to compute, first iteration

 
 Time of computation ->  20140101.144000      in sec:      52800.
 not possible to compute, first iteration

 
 Time of computation ->  20140101.145000      in sec:      53400.
 not possible to compute, first iteration

 
 Time of computation ->  20140101.150000      in sec:      54000.
 not possible to compute, first iteration

 
 Time of computation ->  20140101.151000      in sec:      54600.
 not possible to compute, first iteration

 
 Time of computation ->  20140101.152000      in sec:      55200.
 not possible to compute, first iteration

 
 Time of computation ->  20140101.153000      in sec:      55800.
 not possible to compute, first iteration

 
 Time of computation ->  20140101.154000      in sec:      56400.
 not possible to compute, first iteration

 
 Time of computation ->  20140101.155000      in sec:      57000.
 not possible to compute, first iteration

 
 Time of computation ->  20140101.160000      in sec:      57600.
 not possible to compute, first iteration

 
 Time of computation ->  20140101.161000      in sec:      58200.
 not possible to compute, first iteration

 
 Time of computation ->  20140101.162000      in sec:      58800.
 not possible to compute, first iteration

 
 Time of computation ->  20140101.163000      in sec:      59400.
 not possible to compute, first iteration

 
 Time of computation ->  20140101.164000      in sec:      60000.
 not possible to compute, first iteration

 
 Time of computation ->  20140101.165000      in sec:      60600.
 not possible to compute, first iteration

 
 Time of computation ->  20140101.170000      in sec:      61200.
 not possible to compute, first iteration

 
 Time of computation ->  20140101.171000      in sec:      61800.
 not possible to compute, first iteration

 
 Time of computation ->  20140101.172000      in sec:      62400.
 not possible to compute, first iteration

 
 Time of computation ->  20140101.173000      in sec:      63000.
 not possible to compute, first iteration

 
 Time of computation ->  20140101.174000      in sec:      63600.
 not possible to compute, first iteration

 
 Time of computation ->  20140101.175000      in sec:      64200.
 not possible to compute, first iteration

 
 Time of computation ->  20140101.180000      in sec:      64800.
 not possible to compute, first iteration

 
 Time of computation ->  20140101.181000      in sec:      65400.
 not possible to compute, first iteration

 
 Time of computation ->  20140101.182000      in sec:      66000.
 not possible to compute, first iteration

 
 Time of computation ->  20140101.183000      in sec:      66600.
 not possible to compute, first iteration

 
 Time of computation ->  20140101.184000      in sec:      67200.
 not possible to compute, first iteration

 
 Time of computation ->  20140101.185000      in sec:      67800.
 not possible to compute, first iteration

 
 Time of computation ->  20140101.190000      in sec:      68400.
 not possible to compute, first iteration

 
 Time of computation ->  20140101.191000      in sec:      69000.
 not possible to compute, first iteration

 
 Time of computation ->  20140101.192000      in sec:      69600.
 not possible to compute, first iteration

 
 Time of computation ->  20140101.193000      in sec:      70200.
 not possible to compute, first iteration

 
 Time of computation ->  20140101.194000      in sec:      70800.
 not possible to compute, first iteration

 
 Time of computation ->  20140101.195000      in sec:      71400.
 not possible to compute, first iteration

 
 Time of computation ->  20140101.200000      in sec:      72000.
 not possible to compute, first iteration

 
 Time of computation ->  20140101.201000      in sec:      72600.
 not possible to compute, first iteration

 
 Time of computation ->  20140101.202000      in sec:      73200.
 not possible to compute, first iteration

 
 Time of computation ->  20140101.203000      in sec:      73800.
 not possible to compute, first iteration

 
 Time of computation ->  20140101.204000      in sec:      74400.
 not possible to compute, first iteration

 
 Time of computation ->  20140101.205000      in sec:      75000.
 not possible to compute, first iteration

 
 Time of computation ->  20140101.210000      in sec:      75600.
 not possible to compute, first iteration

 
 Time of computation ->  20140101.211000      in sec:      76200.
 not possible to compute, first iteration

 
 Time of computation ->  20140101.212000      in sec:      76800.
 not possible to compute, first iteration

 
 Time of computation ->  20140101.213000      in sec:      77400.
 not possible to compute, first iteration

 
 Time of computation ->  20140101.214000      in sec:      78000.
 not possible to compute, first iteration

 
 Time of computation ->  20140101.215000      in sec:      78600.
 not possible to compute, first iteration

 
 Time of computation ->  20140101.220000      in sec:      79200.
 not possible to compute, first iteration

 
 Time of computation ->  20140101.221000      in sec:      79800.
 not possible to compute, first iteration

 
 Time of computation ->  20140101.222000      in sec:      80400.
 not possible to compute, first iteration

 
 Time of computation ->  20140101.223000      in sec:      81000.
 not possible to compute, first iteration

 
 Time of computation ->  20140101.224000      in sec:      81600.
 not possible to compute, first iteration

 
 Time of computation ->  20140101.225000      in sec:      82200.
 not possible to compute, first iteration

 
 Time of computation ->  20140101.230000      in sec:      82800.
 not possible to compute, first iteration

 
 Time of computation ->  20140101.231000      in sec:      83400.
 not possible to compute, first iteration

 
 Time of computation ->  20140101.232000      in sec:      84000.
 not possible to compute, first iteration

 
 Time of computation ->  20140101.233000      in sec:      84600.
 not possible to compute, first iteration

 
 Time of computation ->  20140101.234000      in sec:      85200.
 not possible to compute, first iteration

 
 Time of computation ->  20140101.235000      in sec:      85800.
 not possible to compute, first iteration

 
 Time of computation ->  20140102.000000      in sec:      86400.
 not possible to compute, first iteration

 
 Time of computation ->  20140102.001000      in sec:      87000.
 not possible to compute, first iteration

 
 Time of computation ->  20140102.002000      in sec:      87600.
 not possible to compute, first iteration

 
 Time of computation ->  20140102.003000      in sec:      88200.
 not possible to compute, first iteration

 
 Time of computation ->  20140102.004000      in sec:      88800.
 not possible to compute, first iteration

 
 Time of computation ->  20140102.005000      in sec:      89400.
 not possible to compute, first iteration

 
 Time of computation ->  20140102.010000      in sec:      90000.
 not possible to compute, first iteration

 
 Time of computation ->  20140102.011000      in sec:      90600.
 not possible to compute, first iteration

 
 Time of computation ->  20140102.012000      in sec:      91200.
 not possible to compute, first iteration

 
 Time of computation ->  20140102.013000      in sec:      91800.
 not possible to compute, first iteration

 
 Time of computation ->  20140102.014000      in sec:      92400.
 not possible to compute, first iteration

 
 Time of computation ->  20140102.015000      in sec:      93000.
 not possible to compute, first iteration

 
 Time of computation ->  20140102.020000      in sec:      93600.
 not possible to compute, first iteration

 
 Time of computation ->  20140102.021000      in sec:      94200.
 not possible to compute, first iteration

 
 Time of computation ->  20140102.022000      in sec:      94800.
 not possible to compute, first iteration

 
 Time of computation ->  20140102.023000      in sec:      95400.
 not possible to compute, first iteration

 
 Time of computation ->  20140102.024000      in sec:      96000.
 not possible to compute, first iteration

 
 Time of computation ->  20140102.025000      in sec:      96600.
 not possible to compute, first iteration

 
 Time of computation ->  20140102.030000      in sec:      97200.
 not possible to compute, first iteration

 
 Time of computation ->  20140102.031000      in sec:      97800.
 not possible to compute, first iteration

 
 Time of computation ->  20140102.032000      in sec:      98400.
 not possible to compute, first iteration

 
 Time of computation ->  20140102.033000      in sec:      99000.
 not possible to compute, first iteration

 
 Time of computation ->  20140102.034000      in sec:      99600.
 not possible to compute, first iteration

 
 Time of computation ->  20140102.035000      in sec:     100200.
 not possible to compute, first iteration

 
 Time of computation ->  20140102.040000      in sec:     100800.
 not possible to compute, first iteration

 
 Time of computation ->  20140102.041000      in sec:     101400.
 not possible to compute, first iteration

 
 Time of computation ->  20140102.042000      in sec:     102000.
 not possible to compute, first iteration

 
 Time of computation ->  20140102.043000      in sec:     102600.
 not possible to compute, first iteration

 
 Time of computation ->  20140102.044000      in sec:     103200.
 not possible to compute, first iteration

 
 Time of computation ->  20140102.045000      in sec:     103800.
 not possible to compute, first iteration

 
 Time of computation ->  20140102.050000      in sec:     104400.
 not possible to compute, first iteration

 
 Time of computation ->  20140102.051000      in sec:     105000.
 not possible to compute, first iteration

 
 Time of computation ->  20140102.052000      in sec:     105600.
 not possible to compute, first iteration

 
 Time of computation ->  20140102.053000      in sec:     106200.
 not possible to compute, first iteration

 
 Time of computation ->  20140102.054000      in sec:     106800.
 not possible to compute, first iteration

 
 Time of computation ->  20140102.055000      in sec:     107400.
 not possible to compute, first iteration

 
 Time of computation ->  20140102.060000      in sec:     108000.
 not possible to compute, first iteration

 
 Time of computation ->  20140102.061000      in sec:     108600.
 not possible to compute, first iteration

 
 Time of computation ->  20140102.062000      in sec:     109200.
 not possible to compute, first iteration

 
 Time of computation ->  20140102.063000      in sec:     109800.
 not possible to compute, first iteration

 
 Time of computation ->  20140102.064000      in sec:     110400.
 not possible to compute, first iteration

 
 Time of computation ->  20140102.065000      in sec:     111000.
 not possible to compute, first iteration

 
 Time of computation ->  20140102.070000      in sec:     111600.
 not possible to compute, first iteration

 
 Time of computation ->  20140102.071000      in sec:     112200.
 not possible to compute, first iteration

 
 Time of computation ->  20140102.072000      in sec:     112800.
 not possible to compute, first iteration

 
 Time of computation ->  20140102.073000      in sec:     113400.
 not possible to compute, first iteration

 
 Time of computation ->  20140102.074000      in sec:     114000.
 not possible to compute, first iteration

 
 Time of computation ->  20140102.075000      in sec:     114600.
 not possible to compute, first iteration

 
 Time of computation ->  20140102.080000      in sec:     115200.
 not possible to compute, first iteration

 
 Time of computation ->  20140102.081000      in sec:     115800.
 not possible to compute, first iteration

 
 Time of computation ->  20140102.082000      in sec:     116400.
 not possible to compute, first iteration

 
 Time of computation ->  20140102.083000      in sec:     117000.
 not possible to compute, first iteration

 
 Time of computation ->  20140102.084000      in sec:     117600.
 not possible to compute, first iteration

 
 Time of computation ->  20140102.085000      in sec:     118200.
 not possible to compute, first iteration

 
 Time of computation ->  20140102.090000      in sec:     118800.
 not possible to compute, first iteration

 
 Time of computation ->  20140102.091000      in sec:     119400.
 not possible to compute, first iteration

 
 Time of computation ->  20140102.092000      in sec:     120000.
 not possible to compute, first iteration

 
 Time of computation ->  20140102.093000      in sec:     120600.
 not possible to compute, first iteration

 
 Time of computation ->  20140102.094000      in sec:     121200.
 not possible to compute, first iteration

 
 Time of computation ->  20140102.095000      in sec:     121800.
 not possible to compute, first iteration

 
 Time of computation ->  20140102.100000      in sec:     122400.
 not possible to compute, first iteration

 
 Time of computation ->  20140102.101000      in sec:     123000.
 not possible to compute, first iteration

 
 Time of computation ->  20140102.102000      in sec:     123600.
 not possible to compute, first iteration

 
 Time of computation ->  20140102.103000      in sec:     124200.
 not possible to compute, first iteration

 
 Time of computation ->  20140102.104000      in sec:     124800.
 not possible to compute, first iteration

 
 Time of computation ->  20140102.105000      in sec:     125400.
 not possible to compute, first iteration

 
 Time of computation ->  20140102.110000      in sec:     126000.
 not possible to compute, first iteration

 
 Time of computation ->  20140102.111000      in sec:     126600.
 not possible to compute, first iteration

 
 Time of computation ->  20140102.112000      in sec:     127200.
 not possible to compute, first iteration

 
 Time of computation ->  20140102.113000      in sec:     127800.
 not possible to compute, first iteration

 
 Time of computation ->  20140102.114000      in sec:     128400.
 not possible to compute, first iteration

 
 Time of computation ->  20140102.115000      in sec:     129000.
 not possible to compute, first iteration

 
 Time of computation ->  20140102.120000      in sec:     129600.
 not possible to compute, first iteration

 
 Time of computation ->  20140102.121000      in sec:     130200.
 not possible to compute, first iteration

 
 Time of computation ->  20140102.122000      in sec:     130800.
 not possible to compute, first iteration

 
 Time of computation ->  20140102.123000      in sec:     131400.
 not possible to compute, first iteration

 
 Time of computation ->  20140102.124000      in sec:     132000.
 not possible to compute, first iteration

 
 Time of computation ->  20140102.125000      in sec:     132600.
 not possible to compute, first iteration

 
 Time of computation ->  20140102.130000      in sec:     133200.
 not possible to compute, first iteration

 
 Time of computation ->  20140102.131000      in sec:     133800.
 not possible to compute, first iteration

 
 Time of computation ->  20140102.132000      in sec:     134400.
 not possible to compute, first iteration

 
 Time of computation ->  20140102.133000      in sec:     135000.
 not possible to compute, first iteration

 
 Time of computation ->  20140102.134000      in sec:     135600.
 not possible to compute, first iteration

 
 Time of computation ->  20140102.135000      in sec:     136200.
 not possible to compute, first iteration

 
 Time of computation ->  20140102.140000      in sec:     136800.
 not possible to compute, first iteration

 
 Time of computation ->  20140102.141000      in sec:     137400.
 not possible to compute, first iteration

 
 Time of computation ->  20140102.142000      in sec:     138000.
 not possible to compute, first iteration

 
 Time of computation ->  20140102.143000      in sec:     138600.
 not possible to compute, first iteration

 
 Time of computation ->  20140102.144000      in sec:     139200.
 not possible to compute, first iteration

 
 Time of computation ->  20140102.145000      in sec:     139800.
 not possible to compute, first iteration

 
 Time of computation ->  20140102.150000      in sec:     140400.
 not possible to compute, first iteration

 
 Time of computation ->  20140102.151000      in sec:     141000.
 not possible to compute, first iteration

 
 Time of computation ->  20140102.152000      in sec:     141600.
 not possible to compute, first iteration

 
 Time of computation ->  20140102.153000      in sec:     142200.
 not possible to compute, first iteration

 
 Time of computation ->  20140102.154000      in sec:     142800.
 not possible to compute, first iteration

 
 Time of computation ->  20140102.155000      in sec:     143400.
 not possible to compute, first iteration

 
 Time of computation ->  20140102.160000      in sec:     144000.
 not possible to compute, first iteration

 
 Time of computation ->  20140102.161000      in sec:     144600.
 not possible to compute, first iteration

 
 Time of computation ->  20140102.162000      in sec:     145200.
 not possible to compute, first iteration

 
 Time of computation ->  20140102.163000      in sec:     145800.
 not possible to compute, first iteration

 
 Time of computation ->  20140102.164000      in sec:     146400.
 not possible to compute, first iteration

 
 Time of computation ->  20140102.165000      in sec:     147000.
 not possible to compute, first iteration

 
 Time of computation ->  20140102.170000      in sec:     147600.
 not possible to compute, first iteration

 
 Time of computation ->  20140102.171000      in sec:     148200.
 not possible to compute, first iteration

 
 Time of computation ->  20140102.172000      in sec:     148800.
 not possible to compute, first iteration

 
 Time of computation ->  20140102.173000      in sec:     149400.
 not possible to compute, first iteration

 
 Time of computation ->  20140102.174000      in sec:     150000.
 not possible to compute, first iteration

 
 Time of computation ->  20140102.175000      in sec:     150600.
 not possible to compute, first iteration

 
 Time of computation ->  20140102.180000      in sec:     151200.
 not possible to compute, first iteration

 
 Time of computation ->  20140102.181000      in sec:     151800.
 not possible to compute, first iteration

 
 Time of computation ->  20140102.182000      in sec:     152400.
 not possible to compute, first iteration

 
 Time of computation ->  20140102.183000      in sec:     153000.
 not possible to compute, first iteration

 
 Time of computation ->  20140102.184000      in sec:     153600.
 not possible to compute, first iteration

 
 Time of computation ->  20140102.185000      in sec:     154200.
 not possible to compute, first iteration

 
 Time of computation ->  20140102.190000      in sec:     154800.
 not possible to compute, first iteration

 
 Time of computation ->  20140102.191000      in sec:     155400.
 not possible to compute, first iteration

 
 Time of computation ->  20140102.192000      in sec:     156000.
 not possible to compute, first iteration

 
 Time of computation ->  20140102.193000      in sec:     156600.
 not possible to compute, first iteration

 
 Time of computation ->  20140102.194000      in sec:     157200.
 not possible to compute, first iteration

 
 Time of computation ->  20140102.195000      in sec:     157800.
 not possible to compute, first iteration

 
 Time of computation ->  20140102.200000      in sec:     158400.
 not possible to compute, first iteration

 
 Time of computation ->  20140102.201000      in sec:     159000.
 not possible to compute, first iteration

 
 Time of computation ->  20140102.202000      in sec:     159600.
 not possible to compute, first iteration

 
 Time of computation ->  20140102.203000      in sec:     160200.
 not possible to compute, first iteration

 
 Time of computation ->  20140102.204000      in sec:     160800.
 not possible to compute, first iteration

 
 Time of computation ->  20140102.205000      in sec:     161400.
 not possible to compute, first iteration

 
 Time of computation ->  20140102.210000      in sec:     162000.
 not possible to compute, first iteration

 
 Time of computation ->  20140102.211000      in sec:     162600.
 not possible to compute, first iteration

 
 Time of computation ->  20140102.212000      in sec:     163200.
 not possible to compute, first iteration

 
 Time of computation ->  20140102.213000      in sec:     163800.
 not possible to compute, first iteration

 
 Time of computation ->  20140102.214000      in sec:     164400.
 not possible to compute, first iteration

 
 Time of computation ->  20140102.215000      in sec:     165000.
 not possible to compute, first iteration

 
 Time of computation ->  20140102.220000      in sec:     165600.
 not possible to compute, first iteration

 
 Time of computation ->  20140102.221000      in sec:     166200.
 not possible to compute, first iteration

 
 Time of computation ->  20140102.222000      in sec:     166800.
 not possible to compute, first iteration

 
 Time of computation ->  20140102.223000      in sec:     167400.
 not possible to compute, first iteration

 
 Time of computation ->  20140102.224000      in sec:     168000.
 not possible to compute, first iteration

 
 Time of computation ->  20140102.225000      in sec:     168600.
 not possible to compute, first iteration

 
 Time of computation ->  20140102.230000      in sec:     169200.
 not possible to compute, first iteration

 
 Time of computation ->  20140102.231000      in sec:     169800.
 not possible to compute, first iteration

 
 Time of computation ->  20140102.232000      in sec:     170400.
 not possible to compute, first iteration

 
 Time of computation ->  20140102.233000      in sec:     171000.
 not possible to compute, first iteration

 
 Time of computation ->  20140102.234000      in sec:     171600.
 not possible to compute, first iteration

 
 Time of computation ->  20140102.235000      in sec:     172200.
 not possible to compute, first iteration

 
 Time of computation ->  20140103.000000      in sec:     172800.
 not possible to compute, first iteration

 
 Time of computation ->  20140103.001000      in sec:     173400.
 not possible to compute, first iteration

 
 Time of computation ->  20140103.002000      in sec:     174000.
 not possible to compute, first iteration

 
 Time of computation ->  20140103.003000      in sec:     174600.
 not possible to compute, first iteration

 
 Time of computation ->  20140103.004000      in sec:     175200.
 not possible to compute, first iteration

 
 Time of computation ->  20140103.005000      in sec:     175800.
 not possible to compute, first iteration

 
 Time of computation ->  20140103.010000      in sec:     176400.
 not possible to compute, first iteration

 
 Time of computation ->  20140103.011000      in sec:     177000.
 not possible to compute, first iteration

 
 Time of computation ->  20140103.012000      in sec:     177600.
 not possible to compute, first iteration

 
 Time of computation ->  20140103.013000      in sec:     178200.
 not possible to compute, first iteration

 
 Time of computation ->  20140103.014000      in sec:     178800.
 not possible to compute, first iteration

 
 Time of computation ->  20140103.015000      in sec:     179400.
 not possible to compute, first iteration

 
 Time of computation ->  20140103.020000      in sec:     180000.
 not possible to compute, first iteration

 
 Time of computation ->  20140103.021000      in sec:     180600.
 not possible to compute, first iteration

 
 Time of computation ->  20140103.022000      in sec:     181200.
 not possible to compute, first iteration

 
 Time of computation ->  20140103.023000      in sec:     181800.
 not possible to compute, first iteration

 
 Time of computation ->  20140103.024000      in sec:     182400.
 not possible to compute, first iteration

 
 Time of computation ->  20140103.025000      in sec:     183000.
 not possible to compute, first iteration

 
 Time of computation ->  20140103.030000      in sec:     183600.
 not possible to compute, first iteration

 
 Time of computation ->  20140103.031000      in sec:     184200.
 not possible to compute, first iteration

 
 Time of computation ->  20140103.032000      in sec:     184800.
 not possible to compute, first iteration

 
 Time of computation ->  20140103.033000      in sec:     185400.
 not possible to compute, first iteration

 
 Time of computation ->  20140103.034000      in sec:     186000.
 not possible to compute, first iteration

 
 Time of computation ->  20140103.035000      in sec:     186600.
 not possible to compute, first iteration

 
 Time of computation ->  20140103.040000      in sec:     187200.
 not possible to compute, first iteration

 
 Time of computation ->  20140103.041000      in sec:     187800.
 not possible to compute, first iteration

 
 Time of computation ->  20140103.042000      in sec:     188400.
 not possible to compute, first iteration

 
 Time of computation ->  20140103.043000      in sec:     189000.
 not possible to compute, first iteration

 
 Time of computation ->  20140103.044000      in sec:     189600.
 not possible to compute, first iteration

 
 Time of computation ->  20140103.045000      in sec:     190200.
 not possible to compute, first iteration

 
 Time of computation ->  20140103.050000      in sec:     190800.
 not possible to compute, first iteration

 
 Time of computation ->  20140103.051000      in sec:     191400.
 not possible to compute, first iteration

 
 Time of computation ->  20140103.052000      in sec:     192000.
 not possible to compute, first iteration

 
 Time of computation ->  20140103.053000      in sec:     192600.
 not possible to compute, first iteration

 
 Time of computation ->  20140103.054000      in sec:     193200.
 not possible to compute, first iteration

 
 Time of computation ->  20140103.055000      in sec:     193800.
 not possible to compute, first iteration

 
 Time of computation ->  20140103.060000      in sec:     194400.
 not possible to compute, first iteration

 
 Time of computation ->  20140103.061000      in sec:     195000.
 not possible to compute, first iteration

 
 Time of computation ->  20140103.062000      in sec:     195600.
 not possible to compute, first iteration

 
 Time of computation ->  20140103.063000      in sec:     196200.
 not possible to compute, first iteration

 
 Time of computation ->  20140103.064000      in sec:     196800.
 not possible to compute, first iteration

 
 Time of computation ->  20140103.065000      in sec:     197400.
 not possible to compute, first iteration

 
 Time of computation ->  20140103.070000      in sec:     198000.
 not possible to compute, first iteration

 
 Time of computation ->  20140103.071000      in sec:     198600.
 not possible to compute, first iteration

 
 Time of computation ->  20140103.072000      in sec:     199200.
 not possible to compute, first iteration

 
 Time of computation ->  20140103.073000      in sec:     199800.
 not possible to compute, first iteration

 
 Time of computation ->  20140103.074000      in sec:     200400.
 not possible to compute, first iteration

 
 Time of computation ->  20140103.075000      in sec:     201000.
 not possible to compute, first iteration

 
 Time of computation ->  20140103.080000      in sec:     201600.
 not possible to compute, first iteration

 
 Time of computation ->  20140103.081000      in sec:     202200.
 not possible to compute, first iteration

 
 Time of computation ->  20140103.082000      in sec:     202800.
 not possible to compute, first iteration

 
 Time of computation ->  20140103.083000      in sec:     203400.
 not possible to compute, first iteration

 
 Time of computation ->  20140103.084000      in sec:     204000.
 not possible to compute, first iteration

 
 Time of computation ->  20140103.085000      in sec:     204600.
 not possible to compute, first iteration

 
 Time of computation ->  20140103.090000      in sec:     205200.
 not possible to compute, first iteration

 
 Time of computation ->  20140103.091000      in sec:     205800.
 not possible to compute, first iteration

 
 Time of computation ->  20140103.092000      in sec:     206400.
 not possible to compute, first iteration

 
 Time of computation ->  20140103.093000      in sec:     207000.
 not possible to compute, first iteration

 
 Time of computation ->  20140103.094000      in sec:     207600.
 not possible to compute, first iteration

 
 Time of computation ->  20140103.095000      in sec:     208200.
 not possible to compute, first iteration

 
 Time of computation ->  20140103.100000      in sec:     208800.
 not possible to compute, first iteration

 
 Time of computation ->  20140103.101000      in sec:     209400.
 not possible to compute, first iteration

 
 Time of computation ->  20140103.102000      in sec:     210000.
 not possible to compute, first iteration

 
 Time of computation ->  20140103.103000      in sec:     210600.
 not possible to compute, first iteration

 
 Time of computation ->  20140103.104000      in sec:     211200.
 not possible to compute, first iteration

 
 Time of computation ->  20140103.105000      in sec:     211800.
 not possible to compute, first iteration

 
 Time of computation ->  20140103.110000      in sec:     212400.
 not possible to compute, first iteration

 
 Time of computation ->  20140103.111000      in sec:     213000.
 not possible to compute, first iteration

 
 Time of computation ->  20140103.112000      in sec:     213600.
 not possible to compute, first iteration

 
 Time of computation ->  20140103.113000      in sec:     214200.
 not possible to compute, first iteration

 
 Time of computation ->  20140103.114000      in sec:     214800.
 not possible to compute, first iteration

 
 Time of computation ->  20140103.115000      in sec:     215400.
 not possible to compute, first iteration

 
 Time of computation ->  20140103.120000      in sec:     216000.
 not possible to compute, first iteration

 
 Time of computation ->  20140103.121000      in sec:     216600.
 not possible to compute, first iteration

 
 Time of computation ->  20140103.122000      in sec:     217200.
 not possible to compute, first iteration

 
 Time of computation ->  20140103.123000      in sec:     217800.
 not possible to compute, first iteration

 
 Time of computation ->  20140103.124000      in sec:     218400.
 not possible to compute, first iteration

 
 Time of computation ->  20140103.125000      in sec:     219000.
 not possible to compute, first iteration

 
 Time of computation ->  20140103.130000      in sec:     219600.
 not possible to compute, first iteration

 
 Time of computation ->  20140103.131000      in sec:     220200.
 not possible to compute, first iteration

 
 Time of computation ->  20140103.132000      in sec:     220800.
 not possible to compute, first iteration

 
 Time of computation ->  20140103.133000      in sec:     221400.
 not possible to compute, first iteration

 
 Time of computation ->  20140103.134000      in sec:     222000.
 not possible to compute, first iteration

 
 Time of computation ->  20140103.135000      in sec:     222600.
 not possible to compute, first iteration

 
 Time of computation ->  20140103.140000      in sec:     223200.
 not possible to compute, first iteration

 
 Time of computation ->  20140103.141000      in sec:     223800.
 not possible to compute, first iteration

 
 Time of computation ->  20140103.142000      in sec:     224400.
 not possible to compute, first iteration

 
 Time of computation ->  20140103.143000      in sec:     225000.
 not possible to compute, first iteration

 
 Time of computation ->  20140103.144000      in sec:     225600.
 not possible to compute, first iteration

 
 Time of computation ->  20140103.145000      in sec:     226200.
 not possible to compute, first iteration

 
 Time of computation ->  20140103.150000      in sec:     226800.
 not possible to compute, first iteration

 
 Time of computation ->  20140103.151000      in sec:     227400.
 not possible to compute, first iteration

 
 Time of computation ->  20140103.152000      in sec:     228000.
 not possible to compute, first iteration

 
 Time of computation ->  20140103.153000      in sec:     228600.
 not possible to compute, first iteration

 
 Time of computation ->  20140103.154000      in sec:     229200.
 not possible to compute, first iteration

 
 Time of computation ->  20140103.155000      in sec:     229800.
 not possible to compute, first iteration

 
 Time of computation ->  20140103.160000      in sec:     230400.
 not possible to compute, first iteration

 
 Time of computation ->  20140103.161000      in sec:     231000.
 not possible to compute, first iteration

 
 Time of computation ->  20140103.162000      in sec:     231600.
 not possible to compute, first iteration

 
 Time of computation ->  20140103.163000      in sec:     232200.
 not possible to compute, first iteration

 
 Time of computation ->  20140103.164000      in sec:     232800.
 not possible to compute, first iteration

 
 Time of computation ->  20140103.165000      in sec:     233400.
 not possible to compute, first iteration

 
 Time of computation ->  20140103.170000      in sec:     234000.
 not possible to compute, first iteration

 
 Time of computation ->  20140103.171000      in sec:     234600.
 not possible to compute, first iteration

 
 Time of computation ->  20140103.172000      in sec:     235200.
 not possible to compute, first iteration

 
 Time of computation ->  20140103.173000      in sec:     235800.
 not possible to compute, first iteration

 
 Time of computation ->  20140103.174000      in sec:     236400.
 not possible to compute, first iteration

 
 Time of computation ->  20140103.175000      in sec:     237000.
 not possible to compute, first iteration

 
 Time of computation ->  20140103.180000      in sec:     237600.
 not possible to compute, first iteration

 
 Time of computation ->  20140103.181000      in sec:     238200.
 not possible to compute, first iteration

 
 Time of computation ->  20140103.182000      in sec:     238800.
 not possible to compute, first iteration

 
 Time of computation ->  20140103.183000      in sec:     239400.
 not possible to compute, first iteration

 
 Time of computation ->  20140103.184000      in sec:     240000.
 not possible to compute, first iteration

 
 Time of computation ->  20140103.185000      in sec:     240600.
 not possible to compute, first iteration

 
 Time of computation ->  20140103.190000      in sec:     241200.
 not possible to compute, first iteration

 
 Time of computation ->  20140103.191000      in sec:     241800.
 not possible to compute, first iteration

 
 Time of computation ->  20140103.192000      in sec:     242400.
 not possible to compute, first iteration

 
 Time of computation ->  20140103.193000      in sec:     243000.
 not possible to compute, first iteration

 
 Time of computation ->  20140103.194000      in sec:     243600.
 not possible to compute, first iteration

 
 Time of computation ->  20140103.195000      in sec:     244200.
 not possible to compute, first iteration

 
 Time of computation ->  20140103.200000      in sec:     244800.
 not possible to compute, first iteration

 
 Time of computation ->  20140103.201000      in sec:     245400.
 not possible to compute, first iteration

 
 Time of computation ->  20140103.202000      in sec:     246000.
 not possible to compute, first iteration

 
 Time of computation ->  20140103.203000      in sec:     246600.
 not possible to compute, first iteration

 
 Time of computation ->  20140103.204000      in sec:     247200.
 not possible to compute, first iteration

 
 Time of computation ->  20140103.205000      in sec:     247800.
 not possible to compute, first iteration

 
 Time of computation ->  20140103.210000      in sec:     248400.
 not possible to compute, first iteration

 
 Time of computation ->  20140103.211000      in sec:     249000.
 not possible to compute, first iteration

 
 Time of computation ->  20140103.212000      in sec:     249600.
 not possible to compute, first iteration

 
 Time of computation ->  20140103.213000      in sec:     250200.
 not possible to compute, first iteration

 
 Time of computation ->  20140103.214000      in sec:     250800.
 not possible to compute, first iteration

 
 Time of computation ->  20140103.215000      in sec:     251400.
 not possible to compute, first iteration

 
 Time of computation ->  20140103.220000      in sec:     252000.
 not possible to compute, first iteration

 
 Time of computation ->  20140103.221000      in sec:     252600.
 not possible to compute, first iteration

 
 Time of computation ->  20140103.222000      in sec:     253200.
 not possible to compute, first iteration

 
 Time of computation ->  20140103.223000      in sec:     253800.
 not possible to compute, first iteration

 
 Time of computation ->  20140103.224000      in sec:     254400.
 not possible to compute, first iteration

 
 Time of computation ->  20140103.225000      in sec:     255000.
 not possible to compute, first iteration

 
 Time of computation ->  20140103.230000      in sec:     255600.
 not possible to compute, first iteration

 
 Time of computation ->  20140103.231000      in sec:     256200.
 not possible to compute, first iteration

 
 Time of computation ->  20140103.232000      in sec:     256800.
 not possible to compute, first iteration

 
 Time of computation ->  20140103.233000      in sec:     257400.
 not possible to compute, first iteration

 
 Time of computation ->  20140103.234000      in sec:     258000.
 not possible to compute, first iteration

 
 Time of computation ->  20140103.235000      in sec:     258600.
 not possible to compute, first iteration

 
 Time of computation ->  20140104.000000      in sec:     259200.
 not possible to compute, first iteration

 
 Time of computation ->  20140104.001000      in sec:     259800.
 not possible to compute, first iteration

 
 Time of computation ->  20140104.002000      in sec:     260400.
 not possible to compute, first iteration

 
 Time of computation ->  20140104.003000      in sec:     261000.
 not possible to compute, first iteration

 
 Time of computation ->  20140104.004000      in sec:     261600.
 not possible to compute, first iteration

 
 Time of computation ->  20140104.005000      in sec:     262200.
 not possible to compute, first iteration

 
 Time of computation ->  20140104.010000      in sec:     262800.
 not possible to compute, first iteration

 
 Time of computation ->  20140104.011000      in sec:     263400.
 not possible to compute, first iteration

 
 Time of computation ->  20140104.012000      in sec:     264000.
 not possible to compute, first iteration

 
 Time of computation ->  20140104.013000      in sec:     264600.
 not possible to compute, first iteration

 
 Time of computation ->  20140104.014000      in sec:     265200.
 not possible to compute, first iteration

 
 Time of computation ->  20140104.015000      in sec:     265800.
 not possible to compute, first iteration

 
 Time of computation ->  20140104.020000      in sec:     266400.
 not possible to compute, first iteration

 
 Time of computation ->  20140104.021000      in sec:     267000.
 not possible to compute, first iteration

 
 Time of computation ->  20140104.022000      in sec:     267600.
 not possible to compute, first iteration

 
 Time of computation ->  20140104.023000      in sec:     268200.
 not possible to compute, first iteration

 
 Time of computation ->  20140104.024000      in sec:     268800.
 not possible to compute, first iteration

 
 Time of computation ->  20140104.025000      in sec:     269400.
 not possible to compute, first iteration

 
 Time of computation ->  20140104.030000      in sec:     270000.
 not possible to compute, first iteration

 
 Time of computation ->  20140104.031000      in sec:     270600.
 not possible to compute, first iteration

 
 Time of computation ->  20140104.032000      in sec:     271200.
 not possible to compute, first iteration

 
 Time of computation ->  20140104.033000      in sec:     271800.
 not possible to compute, first iteration

 
 Time of computation ->  20140104.034000      in sec:     272400.
 not possible to compute, first iteration

 
 Time of computation ->  20140104.035000      in sec:     273000.
 not possible to compute, first iteration

 
 Time of computation ->  20140104.040000      in sec:     273600.
 not possible to compute, first iteration

 
 Time of computation ->  20140104.041000      in sec:     274200.
 not possible to compute, first iteration

 
 Time of computation ->  20140104.042000      in sec:     274800.
 not possible to compute, first iteration

 
 Time of computation ->  20140104.043000      in sec:     275400.
 not possible to compute, first iteration

 
 Time of computation ->  20140104.044000      in sec:     276000.
 not possible to compute, first iteration

 
 Time of computation ->  20140104.045000      in sec:     276600.
 not possible to compute, first iteration

 
 Time of computation ->  20140104.050000      in sec:     277200.
 not possible to compute, first iteration

 
 Time of computation ->  20140104.051000      in sec:     277800.
 not possible to compute, first iteration

 
 Time of computation ->  20140104.052000      in sec:     278400.
 not possible to compute, first iteration

 
 Time of computation ->  20140104.053000      in sec:     279000.
 not possible to compute, first iteration

 
 Time of computation ->  20140104.054000      in sec:     279600.
 not possible to compute, first iteration

 
 Time of computation ->  20140104.055000      in sec:     280200.
 not possible to compute, first iteration

 
 Time of computation ->  20140104.060000      in sec:     280800.
 not possible to compute, first iteration

 
 Time of computation ->  20140104.061000      in sec:     281400.
 not possible to compute, first iteration

 
 Time of computation ->  20140104.062000      in sec:     282000.
 not possible to compute, first iteration

 
 Time of computation ->  20140104.063000      in sec:     282600.
 not possible to compute, first iteration

 
 Time of computation ->  20140104.064000      in sec:     283200.
 not possible to compute, first iteration

 
 Time of computation ->  20140104.065000      in sec:     283800.
 not possible to compute, first iteration

 
 Time of computation ->  20140104.070000      in sec:     284400.
 not possible to compute, first iteration

 
 Time of computation ->  20140104.071000      in sec:     285000.
 not possible to compute, first iteration

 
 Time of computation ->  20140104.072000      in sec:     285600.
 not possible to compute, first iteration

 
 Time of computation ->  20140104.073000      in sec:     286200.
 not possible to compute, first iteration

 
 Time of computation ->  20140104.074000      in sec:     286800.
 not possible to compute, first iteration

 
 Time of computation ->  20140104.075000      in sec:     287400.
 not possible to compute, first iteration

 
 Time of computation ->  20140104.080000      in sec:     288000.
 not possible to compute, first iteration

 
 Time of computation ->  20140104.081000      in sec:     288600.
 not possible to compute, first iteration

 
 Time of computation ->  20140104.082000      in sec:     289200.
 not possible to compute, first iteration

 
 Time of computation ->  20140104.083000      in sec:     289800.
 not possible to compute, first iteration

 
 Time of computation ->  20140104.084000      in sec:     290400.
 not possible to compute, first iteration

 
 Time of computation ->  20140104.085000      in sec:     291000.
 not possible to compute, first iteration

 
 Time of computation ->  20140104.090000      in sec:     291600.
 not possible to compute, first iteration

 
 Time of computation ->  20140104.091000      in sec:     292200.
 not possible to compute, first iteration

 
 Time of computation ->  20140104.092000      in sec:     292800.
 not possible to compute, first iteration

 
 Time of computation ->  20140104.093000      in sec:     293400.
 not possible to compute, first iteration

 
 Time of computation ->  20140104.094000      in sec:     294000.
 not possible to compute, first iteration

 
 Time of computation ->  20140104.095000      in sec:     294600.
 not possible to compute, first iteration

 
 Time of computation ->  20140104.100000      in sec:     295200.
 not possible to compute, first iteration

 
 Time of computation ->  20140104.101000      in sec:     295800.
 not possible to compute, first iteration

 
 Time of computation ->  20140104.102000      in sec:     296400.
 not possible to compute, first iteration

 
 Time of computation ->  20140104.103000      in sec:     297000.
 not possible to compute, first iteration

 
 Time of computation ->  20140104.104000      in sec:     297600.
 not possible to compute, first iteration

 
 Time of computation ->  20140104.105000      in sec:     298200.
 not possible to compute, first iteration

 
 Time of computation ->  20140104.110000      in sec:     298800.
 not possible to compute, first iteration

 
 Time of computation ->  20140104.111000      in sec:     299400.
 not possible to compute, first iteration

 
 Time of computation ->  20140104.112000      in sec:     300000.
 not possible to compute, first iteration

 
 Time of computation ->  20140104.113000      in sec:     300600.
 not possible to compute, first iteration

 
 Time of computation ->  20140104.114000      in sec:     301200.
 not possible to compute, first iteration

 
 Time of computation ->  20140104.115000      in sec:     301800.
 not possible to compute, first iteration

 
 Time of computation ->  20140104.120000      in sec:     302400.
 not possible to compute, first iteration

 
 Time of computation ->  20140104.121000      in sec:     303000.
 not possible to compute, first iteration

 
 Time of computation ->  20140104.122000      in sec:     303600.
 not possible to compute, first iteration

 
 Time of computation ->  20140104.123000      in sec:     304200.
 not possible to compute, first iteration

 
 Time of computation ->  20140104.124000      in sec:     304800.
 not possible to compute, first iteration

 
 Time of computation ->  20140104.125000      in sec:     305400.
 not possible to compute, first iteration

 
 Time of computation ->  20140104.130000      in sec:     306000.
 not possible to compute, first iteration

 
 Time of computation ->  20140104.131000      in sec:     306600.
 not possible to compute, first iteration

 
 Time of computation ->  20140104.132000      in sec:     307200.
 not possible to compute, first iteration

 
 Time of computation ->  20140104.133000      in sec:     307800.
 not possible to compute, first iteration

 
 Time of computation ->  20140104.134000      in sec:     308400.
 not possible to compute, first iteration

 
 Time of computation ->  20140104.135000      in sec:     309000.
 not possible to compute, first iteration

 
 Time of computation ->  20140104.140000      in sec:     309600.
 not possible to compute, first iteration

 
 Time of computation ->  20140104.141000      in sec:     310200.
 not possible to compute, first iteration

 
 Time of computation ->  20140104.142000      in sec:     310800.
 not possible to compute, first iteration

 
 Time of computation ->  20140104.143000      in sec:     311400.
 not possible to compute, first iteration

 
 Time of computation ->  20140104.144000      in sec:     312000.
 not possible to compute, first iteration

 
 Time of computation ->  20140104.145000      in sec:     312600.
 not possible to compute, first iteration

 
 Time of computation ->  20140104.150000      in sec:     313200.
 not possible to compute, first iteration

 
 Time of computation ->  20140104.151000      in sec:     313800.
 not possible to compute, first iteration

 
 Time of computation ->  20140104.152000      in sec:     314400.
 not possible to compute, first iteration

 
 Time of computation ->  20140104.153000      in sec:     315000.
 not possible to compute, first iteration

 
 Time of computation ->  20140104.154000      in sec:     315600.
 not possible to compute, first iteration

 
 Time of computation ->  20140104.155000      in sec:     316200.
 not possible to compute, first iteration

 
 Time of computation ->  20140104.160000      in sec:     316800.
 not possible to compute, first iteration

 
 Time of computation ->  20140104.161000      in sec:     317400.
 not possible to compute, first iteration

 
 Time of computation ->  20140104.162000      in sec:     318000.
 not possible to compute, first iteration

 
 Time of computation ->  20140104.163000      in sec:     318600.
 not possible to compute, first iteration

 
 Time of computation ->  20140104.164000      in sec:     319200.
 not possible to compute, first iteration

 
 Time of computation ->  20140104.165000      in sec:     319800.
 not possible to compute, first iteration

 
 Time of computation ->  20140104.170000      in sec:     320400.
 not possible to compute, first iteration

 
 Time of computation ->  20140104.171000      in sec:     321000.
 not possible to compute, first iteration

 
 Time of computation ->  20140104.172000      in sec:     321600.
 not possible to compute, first iteration

 
 Time of computation ->  20140104.173000      in sec:     322200.
 not possible to compute, first iteration

 
 Time of computation ->  20140104.174000      in sec:     322800.
 not possible to compute, first iteration

 
 Time of computation ->  20140104.175000      in sec:     323400.
 not possible to compute, first iteration

 
 Time of computation ->  20140104.180000      in sec:     324000.
 not possible to compute, first iteration

 
 Time of computation ->  20140104.181000      in sec:     324600.
 not possible to compute, first iteration

 
 Time of computation ->  20140104.182000      in sec:     325200.
 not possible to compute, first iteration

 
 Time of computation ->  20140104.183000      in sec:     325800.
 not possible to compute, first iteration

 
 Time of computation ->  20140104.184000      in sec:     326400.
 not possible to compute, first iteration

 
 Time of computation ->  20140104.185000      in sec:     327000.
 not possible to compute, first iteration

 
 Time of computation ->  20140104.190000      in sec:     327600.
 not possible to compute, first iteration

 
 Time of computation ->  20140104.191000      in sec:     328200.
 not possible to compute, first iteration

 
 Time of computation ->  20140104.192000      in sec:     328800.
 not possible to compute, first iteration

 
 Time of computation ->  20140104.193000      in sec:     329400.
 not possible to compute, first iteration

 
 Time of computation ->  20140104.194000      in sec:     330000.
 not possible to compute, first iteration

 
 Time of computation ->  20140104.195000      in sec:     330600.
 not possible to compute, first iteration

 
 Time of computation ->  20140104.200000      in sec:     331200.
 not possible to compute, first iteration

 
 Time of computation ->  20140104.201000      in sec:     331800.
 not possible to compute, first iteration

 
 Time of computation ->  20140104.202000      in sec:     332400.
 not possible to compute, first iteration

 
 Time of computation ->  20140104.203000      in sec:     333000.
 not possible to compute, first iteration

 
 Time of computation ->  20140104.204000      in sec:     333600.
 not possible to compute, first iteration

 
 Time of computation ->  20140104.205000      in sec:     334200.
 not possible to compute, first iteration

 
 Time of computation ->  20140104.210000      in sec:     334800.
 not possible to compute, first iteration

 
 Time of computation ->  20140104.211000      in sec:     335400.
 not possible to compute, first iteration

 
 Time of computation ->  20140104.212000      in sec:     336000.
 not possible to compute, first iteration

 
 Time of computation ->  20140104.213000      in sec:     336600.
 not possible to compute, first iteration

 
 Time of computation ->  20140104.214000      in sec:     337200.
 not possible to compute, first iteration

 
 Time of computation ->  20140104.215000      in sec:     337800.
 not possible to compute, first iteration

 
 Time of computation ->  20140104.220000      in sec:     338400.
 not possible to compute, first iteration

 
 Time of computation ->  20140104.221000      in sec:     339000.
 not possible to compute, first iteration

 
 Time of computation ->  20140104.222000      in sec:     339600.
 not possible to compute, first iteration

 
 Time of computation ->  20140104.223000      in sec:     340200.
 not possible to compute, first iteration

 
 Time of computation ->  20140104.224000      in sec:     340800.
 not possible to compute, first iteration

 
 Time of computation ->  20140104.225000      in sec:     341400.
 not possible to compute, first iteration

 
 Time of computation ->  20140104.230000      in sec:     342000.
 not possible to compute, first iteration

 
 Time of computation ->  20140104.231000      in sec:     342600.
 not possible to compute, first iteration

 
 Time of computation ->  20140104.232000      in sec:     343200.
 not possible to compute, first iteration

 
 Time of computation ->  20140104.233000      in sec:     343800.
 not possible to compute, first iteration

 
 Time of computation ->  20140104.234000      in sec:     344400.
 not possible to compute, first iteration

 
 Time of computation ->  20140104.235000      in sec:     345000.
 not possible to compute, first iteration

 
 Time of computation ->  20140105.000000      in sec:     345600.
 not possible to compute, first iteration

 
 Time of computation ->  20140105.001000      in sec:     346200.
 not possible to compute, first iteration

 
 Time of computation ->  20140105.002000      in sec:     346800.
 not possible to compute, first iteration

 
 Time of computation ->  20140105.003000      in sec:     347400.
 not possible to compute, first iteration

 
 Time of computation ->  20140105.004000      in sec:     348000.
 not possible to compute, first iteration

 
 Time of computation ->  20140105.005000      in sec:     348600.
 not possible to compute, first iteration

 
 Time of computation ->  20140105.010000      in sec:     349200.
 not possible to compute, first iteration

 
 Time of computation ->  20140105.011000      in sec:     349800.
 not possible to compute, first iteration

 
 Time of computation ->  20140105.012000      in sec:     350400.
 not possible to compute, first iteration

 
 Time of computation ->  20140105.013000      in sec:     351000.
 not possible to compute, first iteration

 
 Time of computation ->  20140105.014000      in sec:     351600.
 not possible to compute, first iteration

 
 Time of computation ->  20140105.015000      in sec:     352200.
 not possible to compute, first iteration

 
 Time of computation ->  20140105.020000      in sec:     352800.
 not possible to compute, first iteration

 
 Time of computation ->  20140105.021000      in sec:     353400.
 not possible to compute, first iteration

 
 Time of computation ->  20140105.022000      in sec:     354000.
 not possible to compute, first iteration

 
 Time of computation ->  20140105.023000      in sec:     354600.
 not possible to compute, first iteration

 
 Time of computation ->  20140105.024000      in sec:     355200.
 not possible to compute, first iteration

 
 Time of computation ->  20140105.025000      in sec:     355800.
 not possible to compute, first iteration

 
 Time of computation ->  20140105.030000      in sec:     356400.
 not possible to compute, first iteration

 
 Time of computation ->  20140105.031000      in sec:     357000.
 not possible to compute, first iteration

 
 Time of computation ->  20140105.032000      in sec:     357600.
 not possible to compute, first iteration

 
 Time of computation ->  20140105.033000      in sec:     358200.
 not possible to compute, first iteration

 
 Time of computation ->  20140105.034000      in sec:     358800.
 not possible to compute, first iteration

 
 Time of computation ->  20140105.035000      in sec:     359400.
 not possible to compute, first iteration

 
 Time of computation ->  20140105.040000      in sec:     360000.
 not possible to compute, first iteration

 
 Time of computation ->  20140105.041000      in sec:     360600.
 not possible to compute, first iteration

 
 Time of computation ->  20140105.042000      in sec:     361200.
 not possible to compute, first iteration

 
 Time of computation ->  20140105.043000      in sec:     361800.
 not possible to compute, first iteration

 
 Time of computation ->  20140105.044000      in sec:     362400.
 not possible to compute, first iteration

 
 Time of computation ->  20140105.045000      in sec:     363000.
 not possible to compute, first iteration

 
 Time of computation ->  20140105.050000      in sec:     363600.
 not possible to compute, first iteration

 
 Time of computation ->  20140105.051000      in sec:     364200.
 not possible to compute, first iteration

 
 Time of computation ->  20140105.052000      in sec:     364800.
 not possible to compute, first iteration

 
 Time of computation ->  20140105.053000      in sec:     365400.
 not possible to compute, first iteration

 
 Time of computation ->  20140105.054000      in sec:     366000.
 not possible to compute, first iteration

 
 Time of computation ->  20140105.055000      in sec:     366600.
 not possible to compute, first iteration

 
 Time of computation ->  20140105.060000      in sec:     367200.
 not possible to compute, first iteration

 
 Time of computation ->  20140105.061000      in sec:     367800.
 not possible to compute, first iteration

 
 Time of computation ->  20140105.062000      in sec:     368400.
 not possible to compute, first iteration

 
 Time of computation ->  20140105.063000      in sec:     369000.
 not possible to compute, first iteration

 
 Time of computation ->  20140105.064000      in sec:     369600.
 not possible to compute, first iteration

 
 Time of computation ->  20140105.065000      in sec:     370200.
 not possible to compute, first iteration

 
 Time of computation ->  20140105.070000      in sec:     370800.
 not possible to compute, first iteration

 
 Time of computation ->  20140105.071000      in sec:     371400.
 not possible to compute, first iteration

 
 Time of computation ->  20140105.072000      in sec:     372000.
 not possible to compute, first iteration

 
 Time of computation ->  20140105.073000      in sec:     372600.
 not possible to compute, first iteration

 
 Time of computation ->  20140105.074000      in sec:     373200.
 not possible to compute, first iteration

 
 Time of computation ->  20140105.075000      in sec:     373800.
 not possible to compute, first iteration

 
 Time of computation ->  20140105.080000      in sec:     374400.
 not possible to compute, first iteration

 
 Time of computation ->  20140105.081000      in sec:     375000.
 not possible to compute, first iteration

 
 Time of computation ->  20140105.082000      in sec:     375600.
 not possible to compute, first iteration

 
 Time of computation ->  20140105.083000      in sec:     376200.
 not possible to compute, first iteration

 
 Time of computation ->  20140105.084000      in sec:     376800.
 not possible to compute, first iteration

 
 Time of computation ->  20140105.085000      in sec:     377400.
 not possible to compute, first iteration

 
 Time of computation ->  20140105.090000      in sec:     378000.
 not possible to compute, first iteration

 
 Time of computation ->  20140105.091000      in sec:     378600.
 not possible to compute, first iteration

 
 Time of computation ->  20140105.092000      in sec:     379200.
 not possible to compute, first iteration

 
 Time of computation ->  20140105.093000      in sec:     379800.
 not possible to compute, first iteration

 
 Time of computation ->  20140105.094000      in sec:     380400.
 not possible to compute, first iteration

 
 Time of computation ->  20140105.095000      in sec:     381000.
 not possible to compute, first iteration

 
 Time of computation ->  20140105.100000      in sec:     381600.
 not possible to compute, first iteration

 
 Time of computation ->  20140105.101000      in sec:     382200.
 not possible to compute, first iteration

 
 Time of computation ->  20140105.102000      in sec:     382800.
 not possible to compute, first iteration

 
 Time of computation ->  20140105.103000      in sec:     383400.
 not possible to compute, first iteration

 
 Time of computation ->  20140105.104000      in sec:     384000.
 not possible to compute, first iteration

 
 Time of computation ->  20140105.105000      in sec:     384600.
 not possible to compute, first iteration

 
 Time of computation ->  20140105.110000      in sec:     385200.
 not possible to compute, first iteration

 
 Time of computation ->  20140105.111000      in sec:     385800.
 not possible to compute, first iteration

 
 Time of computation ->  20140105.112000      in sec:     386400.
 not possible to compute, first iteration

 
 Time of computation ->  20140105.113000      in sec:     387000.
 not possible to compute, first iteration

 
 Time of computation ->  20140105.114000      in sec:     387600.
 not possible to compute, first iteration

 
 Time of computation ->  20140105.115000      in sec:     388200.
 not possible to compute, first iteration

 
 Time of computation ->  20140105.120000      in sec:     388800.
 not possible to compute, first iteration

 
 Time of computation ->  20140105.121000      in sec:     389400.
 not possible to compute, first iteration

 
 Time of computation ->  20140105.122000      in sec:     390000.
 not possible to compute, first iteration

 
 Time of computation ->  20140105.123000      in sec:     390600.
 not possible to compute, first iteration

 
 Time of computation ->  20140105.124000      in sec:     391200.
 not possible to compute, first iteration

 
 Time of computation ->  20140105.125000      in sec:     391800.
 not possible to compute, first iteration

 
 Time of computation ->  20140105.130000      in sec:     392400.
 not possible to compute, first iteration

 
 Time of computation ->  20140105.131000      in sec:     393000.
 not possible to compute, first iteration

 
 Time of computation ->  20140105.132000      in sec:     393600.
 not possible to compute, first iteration

 
 Time of computation ->  20140105.133000      in sec:     394200.
 not possible to compute, first iteration

 
 Time of computation ->  20140105.134000      in sec:     394800.
 not possible to compute, first iteration

 
 Time of computation ->  20140105.135000      in sec:     395400.
 not possible to compute, first iteration

 
 Time of computation ->  20140105.140000      in sec:     396000.
 not possible to compute, first iteration

 
[...]

 
 Time of computation ->  20140330.181000      in sec:    7668600.
 not possible to compute, first iteration

 
 Time of computation ->  20140330.182000      in sec:    7669200.
 not possible to compute, first iteration

 
 Time of computation ->  20140330.183000      in sec:    7669800.
 not possible to compute, first iteration

 
 Time of computation ->  20140330.184000      in sec:    7670400.
 not possible to compute, first iteration

 
 Time of computation ->  20140330.185000      in sec:    7671000.
 not possible to compute, first iteration

 
 Time of computation ->  20140330.190000      in sec:    7671600.
 not possible to compute, first iteration

 
 Time of computation ->  20140330.191000      in sec:    7672200.
 not possible to compute, first iteration

 
 Time of computation ->  20140330.192000      in sec:    7672800.
 not possible to compute, first iteration

 
 Time of computation ->  20140330.193000      in sec:    7673400.
 not possible to compute, first iteration

 
 Time of computation ->  20140330.194000      in sec:    7674000.
 not possible to compute, first iteration

 
 Time of computation ->  20140330.195000      in sec:    7674600.
 not possible to compute, first iteration

 
 Time of computation ->  20140330.200000      in sec:    7675200.
 not possible to compute, first iteration

 
 Time of computation ->  20140330.201000      in sec:    7675800.
 not possible to compute, first iteration

 
 Time of computation ->  20140330.202000      in sec:    7676400.
 not possible to compute, first iteration

 
 Time of computation ->  20140330.203000      in sec:    7677000.
 not possible to compute, first iteration

 
 Time of computation ->  20140330.204000      in sec:    7677600.
 not possible to compute, first iteration

 
 Time of computation ->  20140330.205000      in sec:    7678200.
 not possible to compute, first iteration

 
 Time of computation ->  20140330.210000      in sec:    7678800.
 not possible to compute, first iteration

 
 Time of computation ->  20140330.211000      in sec:    7679400.
 not possible to compute, first iteration

 
 Time of computation ->  20140330.212000      in sec:    7680000.
 not possible to compute, first iteration

 
 Time of computation ->  20140330.213000      in sec:    7680600.
 not possible to compute, first iteration

 
 Time of computation ->  20140330.214000      in sec:    7681200.
 not possible to compute, first iteration

 
 Time of computation ->  20140330.215000      in sec:    7681800.
 not possible to compute, first iteration

 
 Time of computation ->  20140330.220000      in sec:    7682400.
 not possible to compute, first iteration

 
 Time of computation ->  20140330.221000      in sec:    7683000.
 not possible to compute, first iteration

 
 Time of computation ->  20140330.222000      in sec:    7683600.
 not possible to compute, first iteration

 
 Time of computation ->  20140330.223000      in sec:    7684200.
 not possible to compute, first iteration

 
 Time of computation ->  20140330.224000      in sec:    7684800.
 not possible to compute, first iteration

 
 Time of computation ->  20140330.225000      in sec:    7685400.
 not possible to compute, first iteration

 
 Time of computation ->  20140330.230000      in sec:    7686000.
 not possible to compute, first iteration

 
 Time of computation ->  20140330.231000      in sec:    7686600.
 not possible to compute, first iteration

 
 Time of computation ->  20140330.232000      in sec:    7687200.
 not possible to compute, first iteration

 
 Time of computation ->  20140330.233000      in sec:    7687800.
 not possible to compute, first iteration

 
 Time of computation ->  20140330.234000      in sec:    7688400.
 not possible to compute, first iteration

 
 Time of computation ->  20140330.235000      in sec:    7689000.
 not possible to compute, first iteration

 
 Time of computation ->  20140331.000000      in sec:    7689600.
 not possible to compute, first iteration

 
 Time of computation ->  20140331.001000      in sec:    7690200.
 not possible to compute, first iteration

 
 Time of computation ->  20140331.002000      in sec:    7690800.
 not possible to compute, first iteration

 
 Time of computation ->  20140331.003000      in sec:    7691400.
 not possible to compute, first iteration

 
 Time of computation ->  20140331.004000      in sec:    7692000.
 not possible to compute, first iteration

 
 Time of computation ->  20140331.005000      in sec:    7692600.
 not possible to compute, first iteration

 
 Time of computation ->  20140331.010000      in sec:    7693200.
 not possible to compute, first iteration

 
 Time of computation ->  20140331.011000      in sec:    7693800.
 not possible to compute, first iteration

 
 Time of computation ->  20140331.012000      in sec:    7694400.
 not possible to compute, first iteration

 
 Time of computation ->  20140331.013000      in sec:    7695000.
 not possible to compute, first iteration

 
 Time of computation ->  20140331.014000      in sec:    7695600.
 not possible to compute, first iteration

 
 Time of computation ->  20140331.015000      in sec:    7696200.
 not possible to compute, first iteration

 
 Time of computation ->  20140331.020000      in sec:    7696800.
 not possible to compute, first iteration

 
 Time of computation ->  20140331.021000      in sec:    7697400.
 not possible to compute, first iteration

 
 Time of computation ->  20140331.022000      in sec:    7698000.
 not possible to compute, first iteration

 
 Time of computation ->  20140331.023000      in sec:    7698600.
 not possible to compute, first iteration

 
 Time of computation ->  20140331.024000      in sec:    7699200.
 not possible to compute, first iteration

 
 Time of computation ->  20140331.025000      in sec:    7699800.
 not possible to compute, first iteration

 
 Time of computation ->  20140331.030000      in sec:    7700400.
 not possible to compute, first iteration

 
 Time of computation ->  20140331.031000      in sec:    7701000.
 not possible to compute, first iteration

 
 Time of computation ->  20140331.032000      in sec:    7701600.
 not possible to compute, first iteration

 
 Time of computation ->  20140331.033000      in sec:    7702200.
 not possible to compute, first iteration

 
 Time of computation ->  20140331.034000      in sec:    7702800.
 not possible to compute, first iteration

 
 Time of computation ->  20140331.035000      in sec:    7703400.
 not possible to compute, first iteration

 
 Time of computation ->  20140331.040000      in sec:    7704000.
 not possible to compute, first iteration

 
 Time of computation ->  20140331.041000      in sec:    7704600.
 not possible to compute, first iteration

 
 Time of computation ->  20140331.042000      in sec:    7705200.
 not possible to compute, first iteration

 
 Time of computation ->  20140331.043000      in sec:    7705800.
 not possible to compute, first iteration

 
 Time of computation ->  20140331.044000      in sec:    7706400.
 not possible to compute, first iteration

 
 Time of computation ->  20140331.045000      in sec:    7707000.
 not possible to compute, first iteration

 
 Time of computation ->  20140331.050000      in sec:    7707600.
 not possible to compute, first iteration

 
 Time of computation ->  20140331.051000      in sec:    7708200.
 not possible to compute, first iteration

 
 Time of computation ->  20140331.052000      in sec:    7708800.
 not possible to compute, first iteration

 
 Time of computation ->  20140331.053000      in sec:    7709400.
 not possible to compute, first iteration

 
 Time of computation ->  20140331.054000      in sec:    7710000.
 not possible to compute, first iteration

 
 Time of computation ->  20140331.055000      in sec:    7710600.
 not possible to compute, first iteration

 
 Time of computation ->  20140331.060000      in sec:    7711200.
 not possible to compute, first iteration

 
 Time of computation ->  20140331.061000      in sec:    7711800.
 not possible to compute, first iteration

 
 Time of computation ->  20140331.062000      in sec:    7712400.
 not possible to compute, first iteration

 
 Time of computation ->  20140331.063000      in sec:    7713000.
 not possible to compute, first iteration

 
 Time of computation ->  20140331.064000      in sec:    7713600.
 not possible to compute, first iteration

 
 Time of computation ->  20140331.065000      in sec:    7714200.
 not possible to compute, first iteration

 
 Time of computation ->  20140331.070000      in sec:    7714800.
 not possible to compute, first iteration

 
 Time of computation ->  20140331.071000      in sec:    7715400.
 not possible to compute, first iteration

 
 Time of computation ->  20140331.072000      in sec:    7716000.
 not possible to compute, first iteration

 
 Time of computation ->  20140331.073000      in sec:    7716600.
 not possible to compute, first iteration

 
 Time of computation ->  20140331.074000      in sec:    7717200.
 not possible to compute, first iteration

 
 Time of computation ->  20140331.075000      in sec:    7717800.
 not possible to compute, first iteration

 
 Time of computation ->  20140331.080000      in sec:    7718400.
 not possible to compute, first iteration

 
 Time of computation ->  20140331.081000      in sec:    7719000.
 not possible to compute, first iteration

 
 Time of computation ->  20140331.082000      in sec:    7719600.
 not possible to compute, first iteration

 
 Time of computation ->  20140331.083000      in sec:    7720200.
 not possible to compute, first iteration

 
 Time of computation ->  20140331.084000      in sec:    7720800.
 not possible to compute, first iteration

 
 Time of computation ->  20140331.085000      in sec:    7721400.
 not possible to compute, first iteration

 
 Time of computation ->  20140331.090000      in sec:    7722000.
 not possible to compute, first iteration

 
 Time of computation ->  20140331.091000      in sec:    7722600.
 not possible to compute, first iteration

 
 Time of computation ->  20140331.092000      in sec:    7723200.
 not possible to compute, first iteration

 
 Time of computation ->  20140331.093000      in sec:    7723800.
 not possible to compute, first iteration

 
 Time of computation ->  20140331.094000      in sec:    7724400.
 not possible to compute, first iteration

 
 Time of computation ->  20140331.095000      in sec:    7725000.
 not possible to compute, first iteration

 
 Time of computation ->  20140331.100000      in sec:    7725600.
 not possible to compute, first iteration

 
 Time of computation ->  20140331.101000      in sec:    7726200.
 not possible to compute, first iteration

 
 Time of computation ->  20140331.102000      in sec:    7726800.
 not possible to compute, first iteration

 
 Time of computation ->  20140331.103000      in sec:    7727400.
 not possible to compute, first iteration

 
 Time of computation ->  20140331.104000      in sec:    7728000.
 not possible to compute, first iteration

 
 Time of computation ->  20140331.105000      in sec:    7728600.
 not possible to compute, first iteration

 
 Time of computation ->  20140331.110000      in sec:    7729200.
 not possible to compute, first iteration

 
 Time of computation ->  20140331.111000      in sec:    7729800.
 not possible to compute, first iteration

 
 Time of computation ->  20140331.112000      in sec:    7730400.
 not possible to compute, first iteration

 
 Time of computation ->  20140331.113000      in sec:    7731000.
 not possible to compute, first iteration

 
 Time of computation ->  20140331.114000      in sec:    7731600.
 not possible to compute, first iteration

 
 Time of computation ->  20140331.115000      in sec:    7732200.
 not possible to compute, first iteration

 
 Time of computation ->  20140331.120000      in sec:    7732800.
 not possible to compute, first iteration

 
 Time of computation ->  20140331.121000      in sec:    7733400.
 not possible to compute, first iteration

 
 Time of computation ->  20140331.122000      in sec:    7734000.
 not possible to compute, first iteration

 
 Time of computation ->  20140331.123000      in sec:    7734600.
 not possible to compute, first iteration

 
 Time of computation ->  20140331.124000      in sec:    7735200.
 not possible to compute, first iteration

 
 Time of computation ->  20140331.125000      in sec:    7735800.
 not possible to compute, first iteration

 
 Time of computation ->  20140331.130000      in sec:    7736400.
 not possible to compute, first iteration

 
 Time of computation ->  20140331.131000      in sec:    7737000.
 not possible to compute, first iteration

 
 Time of computation ->  20140331.132000      in sec:    7737600.
 not possible to compute, first iteration

 
 Time of computation ->  20140331.133000      in sec:    7738200.
 not possible to compute, first iteration

 
 Time of computation ->  20140331.134000      in sec:    7738800.
 not possible to compute, first iteration

 
 Time of computation ->  20140331.135000      in sec:    7739400.
 not possible to compute, first iteration

 
 Time of computation ->  20140331.140000      in sec:    7740000.
 not possible to compute, first iteration

 
 Time of computation ->  20140331.141000      in sec:    7740600.
 not possible to compute, first iteration

 
 Time of computation ->  20140331.142000      in sec:    7741200.
 not possible to compute, first iteration

 
 Time of computation ->  20140331.143000      in sec:    7741800.
 not possible to compute, first iteration

 
 Time of computation ->  20140331.144000      in sec:    7742400.
 not possible to compute, first iteration

 
 Time of computation ->  20140331.145000      in sec:    7743000.
 not possible to compute, first iteration

 
 Time of computation ->  20140331.150000      in sec:    7743600.
 not possible to compute, first iteration

 
 Time of computation ->  20140331.151000      in sec:    7744200.
 not possible to compute, first iteration

 
 Time of computation ->  20140331.152000      in sec:    7744800.
 not possible to compute, first iteration

 
 Time of computation ->  20140331.153000      in sec:    7745400.
 not possible to compute, first iteration

 
 Time of computation ->  20140331.154000      in sec:    7746000.
 not possible to compute, first iteration

 
 Time of computation ->  20140331.155000      in sec:    7746600.
 not possible to compute, first iteration

 
 Time of computation ->  20140331.160000      in sec:    7747200.
 not possible to compute, first iteration

 
 Time of computation ->  20140331.161000      in sec:    7747800.
 not possible to compute, first iteration

 
 Time of computation ->  20140331.162000      in sec:    7748400.
 not possible to compute, first iteration

 
 Time of computation ->  20140331.163000      in sec:    7749000.
 not possible to compute, first iteration

 
 Time of computation ->  20140331.164000      in sec:    7749600.
 not possible to compute, first iteration

 
 Time of computation ->  20140331.165000      in sec:    7750200.
 not possible to compute, first iteration

 
 Time of computation ->  20140331.170000      in sec:    7750800.
 not possible to compute, first iteration

 
 Time of computation ->  20140331.171000      in sec:    7751400.
 not possible to compute, first iteration

 
 Time of computation ->  20140331.172000      in sec:    7752000.
 not possible to compute, first iteration

 
 Time of computation ->  20140331.173000      in sec:    7752600.
 not possible to compute, first iteration

 
 Time of computation ->  20140331.174000      in sec:    7753200.
 not possible to compute, first iteration

 
 Time of computation ->  20140331.175000      in sec:    7753800.
 not possible to compute, first iteration

 
 Time of computation ->  20140331.180000      in sec:    7754400.
 not possible to compute, first iteration

 
 Time of computation ->  20140331.181000      in sec:    7755000.
 not possible to compute, first iteration

 
 Time of computation ->  20140331.182000      in sec:    7755600.
 not possible to compute, first iteration

 
 Time of computation ->  20140331.183000      in sec:    7756200.
 not possible to compute, first iteration

 
 Time of computation ->  20140331.184000      in sec:    7756800.
 not possible to compute, first iteration

 
 Time of computation ->  20140331.185000      in sec:    7757400.
 not possible to compute, first iteration

 
 Time of computation ->  20140331.190000      in sec:    7758000.
 not possible to compute, first iteration

 
 Time of computation ->  20140331.191000      in sec:    7758600.
 not possible to compute, first iteration

 
 Time of computation ->  20140331.192000      in sec:    7759200.
 not possible to compute, first iteration

 
 Time of computation ->  20140331.193000      in sec:    7759800.
 not possible to compute, first iteration

 
 Time of computation ->  20140331.194000      in sec:    7760400.
 not possible to compute, first iteration

 
 Time of computation ->  20140331.195000      in sec:    7761000.
 not possible to compute, first iteration

 
 Time of computation ->  20140331.200000      in sec:    7761600.
 not possible to compute, first iteration

 
 Time of computation ->  20140331.201000      in sec:    7762200.
 not possible to compute, first iteration

 
 Time of computation ->  20140331.202000      in sec:    7762800.
 not possible to compute, first iteration

 
 Time of computation ->  20140331.203000      in sec:    7763400.
 not possible to compute, first iteration

 
 Time of computation ->  20140331.204000      in sec:    7764000.
 not possible to compute, first iteration

 
 Time of computation ->  20140331.205000      in sec:    7764600.
 not possible to compute, first iteration

 
 Time of computation ->  20140331.210000      in sec:    7765200.
 not possible to compute, first iteration

 
 Time of computation ->  20140331.211000      in sec:    7765800.
 not possible to compute, first iteration

 
 Time of computation ->  20140331.212000      in sec:    7766400.
 not possible to compute, first iteration

 
 Time of computation ->  20140331.213000      in sec:    7767000.
 not possible to compute, first iteration

 
 Time of computation ->  20140331.214000      in sec:    7767600.
 not possible to compute, first iteration

 
 Time of computation ->  20140331.215000      in sec:    7768200.
 not possible to compute, first iteration

 
 Time of computation ->  20140331.220000      in sec:    7768800.
 not possible to compute, first iteration

 
 Time of computation ->  20140331.221000      in sec:    7769400.
 not possible to compute, first iteration

 
 Time of computation ->  20140331.222000      in sec:    7770000.
 not possible to compute, first iteration

 
 Time of computation ->  20140331.223000      in sec:    7770600.
 not possible to compute, first iteration

 
 Time of computation ->  20140331.224000      in sec:    7771200.
 not possible to compute, first iteration

 
 Time of computation ->  20140331.225000      in sec:    7771800.
 not possible to compute, first iteration

 
 Time of computation ->  20140331.230000      in sec:    7772400.
 not possible to compute, first iteration

 
 Time of computation ->  20140331.231000      in sec:    7773000.
 not possible to compute, first iteration

 
 Time of computation ->  20140331.232000      in sec:    7773600.
 not possible to compute, first iteration

 
 Time of computation ->  20140331.233000      in sec:    7774200.
 not possible to compute, first iteration

 
 Time of computation ->  20140331.234000      in sec:    7774800.
 not possible to compute, first iteration

 
 Time of computation ->  20140331.235000      in sec:    7775400.
 not possible to compute, first iteration

 
 Time of computation ->  20140401.000000      in sec:    7776000.
 not possible to compute, first iteration

 
    
 STOP
